
 OpenBabel06051911563D

 23 23  0  0  0  0  0  0  0  0999 V2000
    0.9823    0.0028    0.0657 Cl  0  0  0  0  0  0  0  0  0  0  0  0
    3.3630   -1.4562    0.0656 S   0  0  0  0  0  0  0  0  0  0  0  0
    6.1005   -3.5972    0.0576 O   0  5  0  0  0  0  0  0  0  0  0  0
    7.7103   -4.9444    0.0530 O   0  0  0  0  0  0  0  0  0  0  0  0
    3.4601    1.1252    0.0653 N   0  0  0  0  0  0  0  0  0  0  0  0
    7.2291   -0.8655    0.0461 N   0  0  0  0  0  0  0  0  0  0  0  0
    8.3707   -2.8911    0.0453 N   0  0  0  0  0  0  0  0  0  0  0  0
    7.3109   -3.7608    0.0522 N   0  3  0  0  0  0  0  0  0  0  0  0
    9.5086   -0.8386    0.0353 N   0  0  0  0  0  0  0  0  0  0  0  0
    4.8038   -0.7085    0.0582 C   0  0  0  0  0  0  0  0  0  0  0  0
    2.6692    0.0711    0.0660 C   0  0  0  0  0  0  0  0  0  0  0  0
    4.7626    0.6397    0.0544 C   0  0  0  0  0  0  0  0  0  0  0  0
    8.3615   -1.5991    0.0424 C   0  0  0  0  0  0  0  0  0  0  0  0
    5.9801   -1.5148    0.0534 C   0  0  0  0  0  0  0  0  0  0  0  0
   10.8177   -1.4747    0.0305 C   0  0  0  0  0  0  0  0  0  0  0  0
    7.1782    0.1213    0.0443 H   0  0  0  0  0  0  0  0  0  0  0  0
    9.5147    0.1764    0.0330 H   0  0  0  0  0  0  0  0  0  0  0  0
    5.6431    1.2586    0.0452 H   0  0  0  0  0  0  0  0  0  0  0  0
    5.8491   -2.0468    1.0615 H   0  0  0  0  0  0  0  0  0  0  0  0
    5.8396   -2.0514   -0.9509 H   0  0  0  0  0  0  0  0  0  0  0  0
   10.7097   -2.5620    0.0335 H   0  0  0  0  0  0  0  0  0  0  0  0
   11.3972   -1.1954    0.9157 H   0  0  0  0  0  0  0  0  0  0  0  0
   11.3888   -1.1994   -0.8613 H   0  0  0  0  0  0  0  0  0  0  0  0
  1 11  1  0  0  0  0
  2 10  1  0  0  0  0
  2 11  1  0  0  0  0
  3  8  1  0  0  0  0
  4  8  2  0  0  0  0
  5 11  2  0  0  0  0
  5 12  1  0  0  0  0
  6 13  1  0  0  0  0
  6 14  1  0  0  0  0
  6 16  1  0  0  0  0
  7  8  1  0  0  0  0
  7 13  2  0  0  0  0
  9 13  1  0  0  0  0
  9 15  1  0  0  0  0
  9 17  1  0  0  0  0
 10 12  2  0  0  0  0
 10 14  1  0  0  0  0
 12 18  1  0  0  0  0
 14 19  1  0  0  0  0
 14 20  1  0  0  0  0
 15 21  1  0  0  0  0
 15 22  1  0  0  0  0
 15 23  1  0  0  0  0
M  CHG  2   3  -1   8   1
M  END
