
 OpenBabel06061909133D

  4  3  0  0  0  0  0  0  0  0999 V2000
   -0.6700    0.6200    0.0000 C   0  0  0  0  0  0  0  0  0  0  0  0
    0.6700    0.6200    0.0000 C   0  0  0  0  0  0  0  0  0  0  0  0
   -1.5010   -0.6200    0.0000 C   0  0  0  0  0  0  0  0  0  0  0  0
    1.5020   -0.6200    0.0000 C   0  0  0  0  0  0  0  0  0  0  0  0
  1  2  2  0  0  0  0
  1  3  1  0  0  0  0
  2  4  1  0  0  0  0
M  END
