
 OpenBabel06071917453D

 19 19  0  0  0  0  0  0  0  0999 V2000
    0.0900    0.1680    0.3930 C   0  0  0  0  0  0  0  0  0  0  0  0
    1.5100    0.3840    0.7970 C   0  0  0  0  0  0  0  0  0  0  0  0
   -0.7150    1.2580    0.0610 C   0  0  0  0  0  0  0  0  0  0  0  0
   -0.4320   -1.1250    0.3460 C   0  0  0  0  0  0  0  0  0  0  0  0
   -2.0420    1.0560   -0.3170 C   0  0  0  0  0  0  0  0  0  0  0  0
   -1.7600   -1.3270   -0.0330 C   0  0  0  0  0  0  0  0  0  0  0  0
   -2.5640   -0.2360   -0.3640 C   0  0  0  0  0  0  0  0  0  0  0  0
    2.4650    0.3590   -0.3680 C   0  0  0  0  0  0  0  0  0  0  0  0
    3.4856    0.0578   -1.1446 C   0  0  0  0  0  0  0  0  0  0  0  0
    1.6080    1.3530    1.3040 H   0  0  0  0  0  0  0  0  0  0  0  0
    1.7950   -0.3620    1.5500 H   0  0  0  0  0  0  0  0  0  0  0  0
   -0.3190    2.2700    0.0920 H   0  0  0  0  0  0  0  0  0  0  0  0
    0.1840   -1.9830    0.6000 H   0  0  0  0  0  0  0  0  0  0  0  0
   -2.6680    1.9050   -0.5750 H   0  0  0  0  0  0  0  0  0  0  0  0
   -2.1670   -2.3330   -0.0700 H   0  0  0  0  0  0  0  0  0  0  0  0
   -3.5980   -0.3940   -0.6590 H   0  0  0  0  0  0  0  0  0  0  0  0
    2.3510    1.1310   -1.1250 H   0  0  0  0  0  0  0  0  0  0  0  0
    4.1060   -0.4940   -1.3750 H   0  0  0  0  0  0  0  0  0  0  0  0
    3.6110   -1.3240    0.2130 H   0  0  0  0  0  0  0  0  0  0  0  0
  1  2  1  0  0  0  0
  1  3  2  0  0  0  0
  1  4  1  0  0  0  0
  2  8  1  0  0  0  0
  2 10  1  0  0  0  0
  2 11  1  0  0  0  0
  3  5  1  0  0  0  0
  3 12  1  0  0  0  0
  4  6  2  0  0  0  0
  4 13  1  0  0  0  0
  5  7  2  0  0  0  0
  5 14  1  0  0  0  0
  6  7  1  0  0  0  0
  6 15  1  0  0  0  0
  7 16  1  0  0  0  0
  8  9  2  0  0  0  0
  8 17  1  0  0  0  0
  9 18  1  0  0  0  0
  9 19  1  0  0  0  0
M  END
