14
gaussian_inputs_0_2/gaussian_00000_0_2/gaussian_00000_0_2.log
C        0.000000   -0.000000   -2.523078
C        0.000000    1.211000   -1.823078
C        0.000000    1.223000   -0.425078
C        0.000000    0.000000    0.243922
C       -0.000000   -1.223000   -0.425078
C       -0.000000   -1.211000   -1.823078
H        0.000000   -0.000000   -3.609078
H        0.000000    2.153000   -2.364078
H        0.000000    2.146000    0.141922
H       -0.000000   -2.146000    0.141922
H       -0.000000   -2.153000   -2.364078
N        0.000000    0.000000    1.723922
O        0.000000   -1.091000    2.289922
O        0.000000    1.091000    2.289922
