14
 generated by VMD
 C        -0.152000        0.662000       -0.001000
 C         0.540000       -0.550000       -0.000000
 C         1.931000       -0.558000        0.001000
 C         2.602000        0.662000        0.002000
 C         1.931000        1.882000        0.001000
 C         0.540000        1.874000       -0.000000
 H        -1.241000        0.662000       -0.001000
 H        -0.004000       -1.493000       -0.000000
 H         2.503000       -1.482000        0.001000
 H         2.503000        2.806000        0.001000
 H        -0.004000        2.816000       -0.000000
 N         4.079000        0.662000        0.004000
 O         4.652000        1.759000       -0.003000
 O         4.652000       -0.435000       -0.003000
