8
XYZ file generated by gabedit : coordinates in Angstrom
C         -0.0002830000          0.7645730000          0.0000000000
H          0.5125480000          1.1647300000          0.8869830000
H          0.5125480000          1.1647300000         -0.8869830000
C         -0.0024360000         -0.7769710000          0.0000000000
H         -0.5150680000         -1.1773140000          0.8870950000
H          1.0214700000         -1.1791600000          0.0000000000
H         -0.5150680000         -1.1773140000         -0.8870950000
H         -1.0239970000          1.1670090000          0.0000000000
 
